! From counter.inc created by EP-Launch when running groups of files
! Output files                          LRMF-Corridor-Prototype_EX_1975_06
! Run description                       LRMF-Corridor-Prototype_EX_1975: 6: Torrance-SCE
! Parent Run
! Run Flag                              True
! Weather                               CA_TORRANCE-MUNI-AP_722955S_CZ2022.epw
! Default equipment values. May be overridden by later values.
! End of default equipment values.
     ! Vintage                                         1975
     ! Case                                            LRMF-Corridor-Prototype_EX_1975_06
     ! Analysis                                        LRMF-Corridor-Prototype_EX_1975
     ! City                                            Torrance-SCE
     ! Includes
!-Generator IDFEditor 1.54
!-Option SortedOrder
!-NOTE: All comments with '!-' are ignored by the IDFEditor and are generated automatically.
!-      Use '!' comments if they need to be retained when using the IDFEditor.
!-   ===========  ALL OBJECTS IN CLASS: VERSION ===========
Version,
    23.1;                    !- Version Identifier
!-   ===========  ALL OBJECTS IN CLASS: SIMULATIONCONTROL ===========
SimulationControl,
    Yes,                     !- Do Zone Sizing Calculation
    Yes,                     !- Do System Sizing Calculation
    No,                      !- Do Plant Sizing Calculation
    Yes,                     !- Run Simulation for Sizing Periods
    Yes,                     !- Run Simulation for Weather File Run Periods
    ,                        !- Do HVAC Sizing Simulation for Sizing Periods
    ;                        !- Maximum Number of HVAC Sizing Simulation Passes
!-   ===========  ALL OBJECTS IN CLASS: BUILDING ===========
Building,
    LRMF_Corridor,           !- Name
    0,                       !- North Axis {deg}
    Suburbs,                 !- Terrain
    0.04,                    !- Loads Convergence Tolerance Value {W}
    0.4,                     !- Temperature Convergence Tolerance Value {deltaC}
    MinimalShadowing,        !- Solar Distribution
    50,                      !- Maximum Number of Warmup Days
    6;                       !- Minimum Number of Warmup Days
!-   ===========  ALL OBJECTS IN CLASS: SURFACECONVECTIONALGORITHM:INSIDE ===========
SurfaceConvectionAlgorithm:Inside,
    TARP;                    !- Algorithm
!-   ===========  ALL OBJECTS IN CLASS: SURFACECONVECTIONALGORITHM:OUTSIDE ===========
SurfaceConvectionAlgorithm:Outside,
    DOE-2;                   !- Algorithm
!-   ===========  ALL OBJECTS IN CLASS: TIMESTEP ===========
Timestep,
    6;                       !- Number of Timesteps per Hour
!-   ===========  ALL OBJECTS IN CLASS: OUTPUT:VARIABLEDICTIONARY ===========
Output:VariableDictionary,
    IDF,                     !- Key Field
    Unsorted;                !- Sort Option
!-   ===========  ALL OBJECTS IN CLASS: OUTPUT:SURFACES:LIST ===========
Output:Surfaces:List,
    Details;                 !- Report Type
!-   ===========  ALL OBJECTS IN CLASS: OUTPUT:SURFACES:DRAWING ===========
Output:Surfaces:Drawing,
    DXF,                     !- Report Type
    Triangulate3DFace;       !- Report Specifications 1
!-   ===========  ALL OBJECTS IN CLASS: OUTPUT:CONSTRUCTIONS ===========
Output:Constructions,
    Constructions;           !- Details Type 1
!-   ===========  ALL OBJECTS IN CLASS: OUTPUT:TABLE:SUMMARYREPORTS ===========
Output:Table:SummaryReports,
    AllSummary;              !- Report 1 Name
!-   ===========  ALL OBJECTS IN CLASS: OUTPUTCONTROL:TABLE:STYLE ===========
OutputControl:Table:Style,
    CommaAndHTML,            !- Column Separator
    InchPound;               !- Unit Conversion
!-   ===========  ALL OBJECTS IN CLASS: OUTPUTCONTROL:REPORTINGTOLERANCES ===========
OutputControl:ReportingTolerances,
    1.11111111111111,        !- Tolerance for Time Heating Setpoint Not Met {deltaC}
    1.11111111111111;        !- Tolerance for Time Cooling Setpoint Not Met {deltaC}
!-   ===========  ALL OBJECTS IN CLASS: OUTPUT:VARIABLE ===========
Output:Variable,
    *,                       !- Key Value
    Site Outdoor Air Drybulb Temperature,  !- Variable Name
    Timestep;                !- Reporting Frequency
!-   ===========  ALL OBJECTS IN CLASS: OUTPUT:SQLITE ===========
Output:SQLite,
    SimpleAndTabular;        !- Option Type
!-   ===========  ALL OBJECTS IN CLASS: OUTPUT:DIAGNOSTICS ===========
Output:Diagnostics,
    DisplayExtraWarnings;    !- Key 1
!-Generator IDFEditor 1.53
!-Option SortedOrder ViewInIPunits
!-NOTE: All comments with '!-' are ignored by the IDFEditor and are generated automatically.
!-      Use '!' comments if they need to be retained when using the IDFEditor.
!-   ===========  ALL OBJECTS IN CLASS: SCHEDULETYPELIMITS ===========
ScheduleTypeLimits,
    any number;              !- Name
ScheduleTypeLimits,
    fraction,                !- Name
    0,                       !- Lower Limit Value
    1,                       !- Upper Limit Value
    Continuous;              !- Numeric Type
!-   ===========  ALL OBJECTS IN CLASS: SCHEDULE:DAY:HOURLY ===========
Schedule:Day:Hourly,
    ActivityDay,             !- Name
    Fraction,                !- Schedule Type Limits Name
    0.43,                    !- Hour 1
    0.43,                    !- Hour 2
    0.43,                    !- Hour 3
    0.43,                    !- Hour 4
    0.43,                    !- Hour 5
    0.72,                    !- Hour 6
    1.0,                     !- Hour 7
    0.67,                    !- Hour 8
    0.33,                    !- Hour 9
    0.17,                    !- Hour 10
    0.17,                    !- Hour 11
    0.17,                    !- Hour 12
    0.17,                    !- Hour 13
    0.17,                    !- Hour 14
    0.23,                    !- Hour 15
    0.33,                    !- Hour 16
    0.5,                     !- Hour 17
    0.67,                    !- Hour 18
    0.83,                    !- Hour 19
    1,                       !- Hour 20
    1,                       !- Hour 21
    0.85,                    !- Hour 22
    0.65,                    !- Hour 23
    0.43;                    !- Hour 24
Schedule:Day:Hourly,
    BathtubWeekday,          !- Name
    fraction,                !- Schedule Type Limits Name
    0,                       !- Hour 1
    0,                       !- Hour 2
    0,                       !- Hour 3
    0,                       !- Hour 4
    0,                       !- Hour 5
    0,                       !- Hour 6
    0,                       !- Hour 7
    0.22,                    !- Hour 8
    0.1,                     !- Hour 9
    0.29,                    !- Hour 10
    0.14,                    !- Hour 11
    0.04,                    !- Hour 12
    0.12,                    !- Hour 13
    0.17,                    !- Hour 14
    0.18,                    !- Hour 15
    0,                       !- Hour 16
    0.11,                    !- Hour 17
    0.22,                    !- Hour 18
    0.34,                    !- Hour 19
    1,                       !- Hour 20
    0.03,                    !- Hour 21
    0.56,                    !- Hour 22
    0.02,                    !- Hour 23
    0;                       !- Hour 24
Schedule:Day:Hourly,
    BathtubWeekend,          !- Name
    fraction,                !- Schedule Type Limits Name
    0,                       !- Hour 1
    0,                       !- Hour 2
    0,                       !- Hour 3
    0,                       !- Hour 4
    0,                       !- Hour 5
    0,                       !- Hour 6
    0,                       !- Hour 7
    0.37,                    !- Hour 8
    0.42,                    !- Hour 9
    0.16,                    !- Hour 10
    0,                       !- Hour 11
    0,                       !- Hour 12
    0,                       !- Hour 13
    0.12,                    !- Hour 14
    0.37,                    !- Hour 15
    0,                       !- Hour 16
    0.07,                    !- Hour 17
    0.29,                    !- Hour 18
    1,                       !- Hour 19
    0.12,                    !- Hour 20
    0,                       !- Hour 21
    0.6,                     !- Hour 22
    0.14,                    !- Hour 23
    0;                       !- Hour 24
Schedule:Day:Hourly,
    ClothesDryerVacation,    !- Name
    Fraction,                !- Schedule Type Limits Name
    0,                       !- Hour 1
    0,                       !- Hour 2
    0,                       !- Hour 3
    0,                       !- Hour 4
    0,                       !- Hour 5
    0,                       !- Hour 6
    0,                       !- Hour 7
    0,                       !- Hour 8
    0,                       !- Hour 9
    0,                       !- Hour 10
    0,                       !- Hour 11
    0,                       !- Hour 12
    0,                       !- Hour 13
    0,                       !- Hour 14
    0,                       !- Hour 15
    0,                       !- Hour 16
    0,                       !- Hour 17
    0,                       !- Hour 18
    0,                       !- Hour 19
    0,                       !- Hour 20
    0,                       !- Hour 21
    0,                       !- Hour 22
    0,                       !- Hour 23
    0;                       !- Hour 24
Schedule:Day:Hourly,
    ClothesDryerWeekday,     !- Name
    Fraction,                !- Schedule Type Limits Name
    0.0996818663838815,      !- Hour 1
    0.0598091198303289,      !- Hour 2
    0.0398727465535526,      !- Hour 3
    0.0199363732767763,      !- Hour 4
    0.0398727465535526,      !- Hour 5
    0.0598091198303289,      !- Hour 6
    0.15949098621421,        !- Hour 7
    0.31898197242842,        !- Hour 8
    0.486427370202556,       !- Hour 9
    0.685791102970318,       !- Hour 10
    0.785472969354199,       !- Hour 11
    0.817391304347826,       !- Hour 12
    0.745600222800647,       !- Hour 13
    0.677836691410393,       !- Hour 14
    0.610073160020138,       !- Hour 15
    0.578154825026511,       !- Hour 16
    0.558218451749735,       !- Hour 17
    0.546236490032885,       !- Hour 18
    0.518345705196183,       !- Hour 19
    0.510391293636256,       !- Hour 20
    0.526300116756109,       !- Hour 21
    0.546236490032885,       !- Hour 22
    0.438600212089077,       !- Hour 23
    0.239236479321316;       !- Hour 24
Schedule:Day:Hourly,
    ClothesDryerWeekend,     !- Name
    Fraction,                !- Schedule Type Limits Name
    0.121951219512195,       !- Hour 1
    0.0731707317073171,      !- Hour 2
    0.0487804878048781,      !- Hour 3
    0.024390243902439,       !- Hour 4
    0.0487804878048781,      !- Hour 5
    0.0731707317073171,      !- Hour 6
    0.195121951219512,       !- Hour 7
    0.390243902439024,       !- Hour 8
    0.59509731460951,        !- Hour 9
    0.8389997536339,         !- Hour 10
    0.960950973146095,       !- Hour 11
    1,                       !- Hour 12
    0.912170485341217,       !- Hour 13
    0.829268292682927,       !- Hour 14
    0.746366100024637,       !- Hour 15
    0.707317073170732,       !- Hour 16
    0.682926829268293,       !- Hour 17
    0.668268046316827,       !- Hour 18
    0.634146341463415,       !- Hour 19
    0.624414880512441,       !- Hour 20
    0.643877802414388,       !- Hour 21
    0.668268046316827,       !- Hour 22
    0.536585365853659,       !- Hour 23
    0.292682926829268;       !- Hour 24
Schedule:Day:Hourly,
    ClothesWasherWeekday,    !- Name
    fraction,                !- Schedule Type Limits Name
    0,                       !- Hour 1
    0,                       !- Hour 2
    0.02,                    !- Hour 3
    0.12,                    !- Hour 4
    0,                       !- Hour 5
    0.04,                    !- Hour 6
    0.13,                    !- Hour 7
    0.34,                    !- Hour 8
    0.52,                    !- Hour 9
    1,                       !- Hour 10
    0.67,                    !- Hour 11
    0.97,                    !- Hour 12
    0.21,                    !- Hour 13
    0.37,                    !- Hour 14
    0.18,                    !- Hour 15
    0.23,                    !- Hour 16
    0.13,                    !- Hour 17
    0.44,                    !- Hour 18
    0.42,                    !- Hour 19
    0.47,                    !- Hour 20
    0.36,                    !- Hour 21
    0.27,                    !- Hour 22
    0.41,                    !- Hour 23
    0.14;                    !- Hour 24
Schedule:Day:Hourly,
    ClothesWasherWeekend,    !- Name
    fraction,                !- Schedule Type Limits Name
    0,                       !- Hour 1
    0,                       !- Hour 2
    0.03,                    !- Hour 3
    0.04,                    !- Hour 4
    0,                       !- Hour 5
    0.13,                    !- Hour 6
    0.29,                    !- Hour 7
    0.46,                    !- Hour 8
    0.67,                    !- Hour 9
    1,                       !- Hour 10
    0.58,                    !- Hour 11
    0.72,                    !- Hour 12
    0.06,                    !- Hour 13
    0.28,                    !- Hour 14
    0.17,                    !- Hour 15
    0.57,                    !- Hour 16
    0.16,                    !- Hour 17
    0.42,                    !- Hour 18
    0.34,                    !- Hour 19
    0.7,                     !- Hour 20
    0.24,                    !- Hour 21
    0.58,                    !- Hour 22
    0.48,                    !- Hour 23
    0.22;                    !- Hour 24
Schedule:Day:Hourly,
    CookingRangeDay,         !- Name
    Fraction,                !- Schedule Type Limits Name
    0.04715848452508,        !- Hour 1
    0.04715848452508,        !- Hour 2
    0.0235458911419424,      !- Hour 3
    0.0235458911419424,      !- Hour 4
    0.04715848452508,        !- Hour 5
    0.0707043756670224,      !- Hour 6
    0.165088046958378,       !- Hour 7
    0.283017609391676,       !- Hour 8
    0.306563500533618,       !- Hour 9
    0.320771077908218,       !- Hour 10
    0.283017609391676,       !- Hour 11
    0.330176093916756,       !- Hour 12
    0.377334578441836,       !- Hour 13
    0.306563500533618,       !- Hour 14
    0.292422625400213,       !- Hour 15
    0.377334578441836,       !- Hour 16
    0.613193703308431,       !- Hour 17
    1,                       !- Hour 18
    0.778348452508004,       !- Hour 19
    0.400947171824973,       !- Hour 20
    0.235859124866596,       !- Hour 21
    0.165088046958378,       !- Hour 22
    0.103721985058698,       !- Hour 23
    0.0707043756670224;      !- Hour 24
Schedule:Day:Hourly,
    DishwasherWeekday,       !- Name
    fraction,                !- Schedule Type Limits Name
    0,                       !- Hour 1
    0.06,                    !- Hour 2
    0.31,                    !- Hour 3
    0.11,                    !- Hour 4
    0,                       !- Hour 5
    0,                       !- Hour 6
    0.01,                    !- Hour 7
    0.24,                    !- Hour 8
    0.61,                    !- Hour 9
    0.67,                    !- Hour 10
    0.47,                    !- Hour 11
    0.71,                    !- Hour 12
    0.53,                    !- Hour 13
    0.33,                    !- Hour 14
    0.11,                    !- Hour 15
    0.24,                    !- Hour 16
    0.1,                     !- Hour 17
    0.28,                    !- Hour 18
    0.4,                     !- Hour 19
    1,                       !- Hour 20
    0.84,                    !- Hour 21
    0.59,                    !- Hour 22
    0.41,                    !- Hour 23
    0.04;                    !- Hour 24
Schedule:Day:Hourly,
    DishwasherWeekend,       !- Name
    fraction,                !- Schedule Type Limits Name
    0,                       !- Hour 1
    0.27,                    !- Hour 2
    0.26,                    !- Hour 3
    0,                       !- Hour 4
    0,                       !- Hour 5
    0,                       !- Hour 6
    0.03,                    !- Hour 7
    0.59,                    !- Hour 8
    0.76,                    !- Hour 9
    1,                       !- Hour 10
    0.75,                    !- Hour 11
    0.5,                     !- Hour 12
    0.5,                     !- Hour 13
    0.13,                    !- Hour 14
    0.09,                    !- Hour 15
    0.62,                    !- Hour 16
    0.14,                    !- Hour 17
    0.47,                    !- Hour 18
    0.41,                    !- Hour 19
    0.42,                    !- Hour 20
    0.99,                    !- Hour 21
    0.15,                    !- Hour 22
    0.12,                    !- Hour 23
    0;                       !- Hour 24
Schedule:Day:Hourly,
    ExteriorLightingDay,     !- Name
    Fraction,                !- Schedule Type Limits Name
    1,                       !- Hour 1
    1,                       !- Hour 2
    1,                       !- Hour 3
    1,                       !- Hour 4
    1,                       !- Hour 5
    1,                       !- Hour 6
    0,                       !- Hour 7
    0,                       !- Hour 8
    0,                       !- Hour 9
    0,                       !- Hour 10
    0,                       !- Hour 11
    0,                       !- Hour 12
    0,                       !- Hour 13
    0,                       !- Hour 14
    0,                       !- Hour 15
    0,                       !- Hour 16
    0,                       !- Hour 17
    0,                       !- Hour 18
    1,                       !- Hour 19
    1,                       !- Hour 20
    1,                       !- Hour 21
    1,                       !- Hour 22
    1,                       !- Hour 23
    1;                       !- Hour 24
Schedule:Day:Hourly,
    LightingDay,             !- Name
    Fraction,                !- Schedule Type Limits Name
    0.0625,                  !- Hour 1
    0.0625,                  !- Hour 2
    0.0625,                  !- Hour 3
    0.0625,                  !- Hour 4
    0.1875,                  !- Hour 5
    0.390625,                !- Hour 6
    0.4375,                  !- Hour 7
    0.390625,                !- Hour 8
    0.171875,                !- Hour 9
    0.1171875,               !- Hour 10
    0.1171875,               !- Hour 11
    0.1171875,               !- Hour 12
    0.1171875,               !- Hour 13
    0.1171875,               !- Hour 14
    0.1171875,               !- Hour 15
    0.203125,                !- Hour 16
    0.4375,                  !- Hour 17
    0.609375,                !- Hour 18
    0.8203125,               !- Hour 19
    0.984375,                !- Hour 20
    1,                       !- Hour 21
    0.6875,                  !- Hour 22
    0.3828125,               !- Hour 23
    0.15625;                 !- Hour 24
Schedule:Day:Hourly,
    MiscPlugLoadDay,         !- Name
    Fraction,                !- Schedule Type Limits Name
    0.607490272373541,       !- Hour 1
    0.559338521400778,       !- Hour 2
    0.552853437094682,       !- Hour 3
    0.545071335927367,       !- Hour 4
    0.524481193255512,       !- Hour 5
    0.585278858625162,       !- Hour 6
    0.676232166018158,       !- Hour 7
    0.718547341115435,       !- Hour 8
    0.607490272373541,       !- Hour 9
    0.517023346303502,       !- Hour 10
    0.529182879377432,       !- Hour 11
    0.529345006485084,       !- Hour 12
    0.520428015564202,       !- Hour 13
    0.538424124513619,       !- Hour 14
    0.568741893644617,       !- Hour 15
    0.600356679636835,       !- Hour 16
    0.71011673151751,        !- Hour 17
    0.862678339818418,       !- Hour 18
    0.936608300907912,       !- Hour 19
    0.966763942931258,       !- Hour 20
    1,                       !- Hour 21
    0.976653696498055,       !- Hour 22
    0.845168612191959,       !- Hour 23
    0.73443579766537;        !- Hour 24
Schedule:Day:Hourly,
    RefrigeratorDay,         !- Name
    Fraction,                !- Schedule Type Limits Name
    0.8,                     !- Hour 1
    0.782696177062374,       !- Hour 2
    0.765593561368209,       !- Hour 3
    0.742857142857143,       !- Hour 4
    0.731388329979879,       !- Hour 5
    0.731388329979879,       !- Hour 6
    0.759959758551308,       !- Hour 7
    0.8,                     !- Hour 8
    0.817102615694165,       !- Hour 9
    0.828571428571429,       !- Hour 10
    0.8,                     !- Hour 11
    0.8,                     !- Hour 12
    0.839839034205231,       !- Hour 13
    0.839839034205231,       !- Hour 14
    0.828571428571429,       !- Hour 15
    0.839839034205231,       !- Hour 16
    0.885714285714286,       !- Hour 17
    0.971428571428572,       !- Hour 18
    1,                       !- Hour 19
    0.971428571428572,       !- Hour 20
    0.942857142857143,       !- Hour 21
    0.925553319919517,       !- Hour 22
    0.885714285714286,       !- Hour 23
    0.828571428571429;       !- Hour 24
Schedule:Day:Hourly,
    ShowersWeekday,          !- Name
    fraction,                !- Schedule Type Limits Name
    0.02,                    !- Hour 1
    0.05,                    !- Hour 2
    0.03,                    !- Hour 3
    0.0,                     !- Hour 4
    0.06,                    !- Hour 5
    0.29,                    !- Hour 6
    0.66,                    !- Hour 7
    1.0,                     !- Hour 8
    0.95,                    !- Hour 9
    0.76,                    !- Hour 10
    0.49,                    !- Hour 11
    0.43,                    !- Hour 12
    0.39,                    !- Hour 13
    0.26,                    !- Hour 14
    0.37,                    !- Hour 15
    0.28,                    !- Hour 16
    0.46,                    !- Hour 17
    0.29,                    !- Hour 18
    0.56,                    !- Hour 19
    0.36,                    !- Hour 20
    0.3,                     !- Hour 21
    0.39,                    !- Hour 22
    0.41,                    !- Hour 23
    0.05;                    !- Hour 24
Schedule:Day:Hourly,
    ShowersWeekend,          !- Name
    fraction,                !- Schedule Type Limits Name
    0.04,                    !- Hour 1
    0.0,                     !- Hour 2
    0.08,                    !- Hour 3
    0.0,                     !- Hour 4
    0.1,                     !- Hour 5
    0.33,                    !- Hour 6
    0.93,                    !- Hour 7
    0.71,                    !- Hour 8
    1.0,                     !- Hour 9
    0.41,                    !- Hour 10
    0.35,                    !- Hour 11
    0.26,                    !- Hour 12
    0.21,                    !- Hour 13
    0.13,                    !- Hour 14
    0.29,                    !- Hour 15
    0.19,                    !- Hour 16
    0.28,                    !- Hour 17
    0.1,                     !- Hour 18
    0.5,                     !- Hour 19
    0.39,                    !- Hour 20
    0.46,                    !- Hour 21
    0.16,                    !- Hour 22
    0.36,                    !- Hour 23
    0.07;                    !- Hour 24
Schedule:Day:Hourly,
    SinksWeekday,            !- Name
    fraction,                !- Schedule Type Limits Name
    0.06,                    !- Hour 1
    0.04,                    !- Hour 2
    0.05,                    !- Hour 3
    0.03,                    !- Hour 4
    0.1,                     !- Hour 5
    0.2,                     !- Hour 6
    0.39,                    !- Hour 7
    0.81,                    !- Hour 8
    0.79,                    !- Hour 9
    1.0,                     !- Hour 10
    0.75,                    !- Hour 11
    0.59,                    !- Hour 12
    0.56,                    !- Hour 13
    0.49,                    !- Hour 14
    0.44,                    !- Hour 15
    0.45,                    !- Hour 16
    0.42,                    !- Hour 17
    0.61,                    !- Hour 18
    0.73,                    !- Hour 19
    0.74,                    !- Hour 20
    0.65,                    !- Hour 21
    0.49,                    !- Hour 22
    0.35,                    !- Hour 23
    0.29;                    !- Hour 24
Schedule:Day:Hourly,
    SinksWeekend,            !- Name
    fraction,                !- Schedule Type Limits Name
    0.05,                    !- Hour 1
    0.01,                    !- Hour 2
    0.06,                    !- Hour 3
    0.02,                    !- Hour 4
    0.05,                    !- Hour 5
    0.28,                    !- Hour 6
    0.44,                    !- Hour 7
    1.0,                     !- Hour 8
    0.66,                    !- Hour 9
    0.61,                    !- Hour 10
    0.72,                    !- Hour 11
    0.41,                    !- Hour 12
    0.46,                    !- Hour 13
    0.35,                    !- Hour 14
    0.44,                    !- Hour 15
    0.31,                    !- Hour 16
    0.39,                    !- Hour 17
    0.59,                    !- Hour 18
    0.55,                    !- Hour 19
    0.65,                    !- Hour 20
    0.61,                    !- Hour 21
    0.58,                    !- Hour 22
    0.29,                    !- Hour 23
    0.28;                    !- Hour 24
Schedule:Day:Hourly,
    SummerLoadDay,           !- Name
    Fraction,                !- Schedule Type Limits Name
    1,                       !- Hour 1
    1,                       !- Hour 2
    1,                       !- Hour 3
    1,                       !- Hour 4
    1,                       !- Hour 5
    1,                       !- Hour 6
    1,                       !- Hour 7
    1,                       !- Hour 8
    1,                       !- Hour 9
    1,                       !- Hour 10
    1,                       !- Hour 11
    1,                       !- Hour 12
    1,                       !- Hour 13
    1,                       !- Hour 14
    1,                       !- Hour 15
    1,                       !- Hour 16
    1,                       !- Hour 17
    1,                       !- Hour 18
    1,                       !- Hour 19
    1,                       !- Hour 20
    1,                       !- Hour 21
    1,                       !- Hour 22
    1,                       !- Hour 23
    1;                       !- Hour 24
Schedule:Day:Hourly,
    WinterLoadDay,           !- Name
    Fraction,                !- Schedule Type Limits Name
    0,                       !- Hour 1
    0,                       !- Hour 2
    0,                       !- Hour 3
    0,                       !- Hour 4
    0,                       !- Hour 5
    0,                       !- Hour 6
    0,                       !- Hour 7
    0,                       !- Hour 8
    0,                       !- Hour 9
    0,                       !- Hour 10
    0,                       !- Hour 11
    0,                       !- Hour 12
    0,                       !- Hour 13
    0,                       !- Hour 14
    0,                       !- Hour 15
    0,                       !- Hour 16
    0,                       !- Hour 17
    0,                       !- Hour 18
    0,                       !- Hour 19
    0,                       !- Hour 20
    0,                       !- Hour 21
    0,                       !- Hour 22
    0,                       !- Hour 23
    0;                       !- Hour 24
!-   ===========  ALL OBJECTS IN CLASS: SCHEDULE:WEEK:COMPACT ===========
Schedule:Week:Compact,
    ActivityWeek,            !- Name
    AllDays,                 !- DayType List 1
    ActivityDay;             !- Schedule:Day Name 1
Schedule:Week:Compact,
    BathsWeek,               !- Name
    Weekdays,                !- DayType List 1
    BathtubWeekday,          !- Schedule:Day Name 1
    AllOtherDays,            !- DayType List 2
    BathtubWeekend;          !- Schedule:Day Name 2
Schedule:Week:Compact,
    ClothesDryerWeek,        !- Name
    Weekdays,                !- DayType List 1
    ClothesWasherWeekday,    !- Schedule:Day Name 1
    Holiday,                 !- DayType List 2
    ClothesDryerVacation,    !- Schedule:Day Name 2
    AllOtherDays,            !- DayType List 3
    ClothesDryerWeekend;     !- Schedule:Day Name 3
Schedule:Week:Compact,
    ClothesWasherWeek,       !- Name
    Weekdays,                !- DayType List 1
    ClothesWasherWeekday,    !- Schedule:Day Name 1
    AllOtherDays,            !- DayType List 2
    ClothesWasherWeekend;    !- Schedule:Day Name 2
Schedule:Week:Compact,
    CookingRangeWeek,        !- Name
    AllDays,                 !- DayType List 1
    CookingRangeDay;         !- Schedule:Day Name 1
Schedule:Week:Compact,
    DishwasherWeek,          !- Name
    Weekdays,                !- DayType List 1
    DishwasherWeekday,       !- Schedule:Day Name 1
    AllOtherDays,            !- DayType List 2
    DishwasherWeekend;       !- Schedule:Day Name 2
Schedule:Week:Compact,
    ExteriorLightingProfileWeek,  !- Name
    AllDays,                 !- DayType List 1
    ExteriorLightingDay;     !- Schedule:Day Name 1
Schedule:Week:Compact,
    LightingProfileWeek,     !- Name
    AllDays,                 !- DayType List 1
    LightingDay;             !- Schedule:Day Name 1
Schedule:Week:Compact,
    MiscPlugLoadWeek,        !- Name
    AllDays,                 !- DayType List 1
    MiscPlugLoadDay;         !- Schedule:Day Name 1
Schedule:Week:Compact,
    RefrigeratorWeek,        !- Name
    AllDays,                 !- DayType List 1
    RefrigeratorDay;         !- Schedule:Day Name 1
Schedule:Week:Compact,
    ShowersWeek,             !- Name
    Weekdays,                !- DayType List 1
    ShowersWeekday,          !- Schedule:Day Name 1
    AllOtherDays,            !- DayType List 2
    ShowersWeekend;          !- Schedule:Day Name 2
Schedule:Week:Compact,