! From counter.inc created by EP-Launch when running groups of files
! Output files                          SF-1-story-Prototype-A_EX_2006_07
! Run description                       SF-1-story-Prototype-A_EX_2006: 7: Environment-CZ07-2022=San-Diego-SCE.idf
! Parent Run
! Run Flag                              True
! Weather                               CA_SAN-DIEGO-LINDBERGH-FLD_722900S_CZ2022.epw
! Default equipment values. May be overridden by later values.
! End of default equipment values.
     ! Vintage                                         2006
     ! Case                                            SF-1-story-Prototype-A_EX_2006_07
     ! Analysis                                        SF-1-story-Prototype-A_EX_2006
     ! City                                            Environment-CZ07-2022=San-Diego-SCE.idf
     ! Includes
!-Generator IDFEditor 1.53
!-Option SortedOrder
!-NOTE: All comments with '!-' are ignored by the IDFEditor and are generated automatically.
!-      Use '!' comments if they need to be retained when using the IDFEditor.
!-   ===========  ALL OBJECTS IN CLASS: VERSION ===========
Version,
    23.1;                    !- Version Identifier
!-   ===========  ALL OBJECTS IN CLASS: SIMULATIONCONTROL ===========
SimulationControl,
    Yes,                     !- Do Zone Sizing Calculation
    Yes,                     !- Do System Sizing Calculation
    No,                      !- Do Plant Sizing Calculation
    Yes,                     !- Run Simulation for Sizing Periods
    Yes,                     !- Run Simulation for Weather File Run Periods
    ,                        !- Do HVAC Sizing Simulation for Sizing Periods
    ;                        !- Maximum Number of HVAC Sizing Simulation Passes
!-   ===========  ALL OBJECTS IN CLASS: BUILDING ===========
Building,
    Single_Family,           !- Name
    0,                       !- North Axis {deg}
    Suburbs,                 !- Terrain
    0.039999999872786,       !- Loads Convergence Tolerance Value {W}
    0.4,                     !- Temperature Convergence Tolerance Value {deltaC}
    FullExterior,            !- Solar Distribution
    25,                      !- Maximum Number of Warmup Days
    6;                       !- Minimum Number of Warmup Days
!-   ===========  ALL OBJECTS IN CLASS: SURFACECONVECTIONALGORITHM:INSIDE ===========
SurfaceConvectionAlgorithm:Inside,
    TARP;                    !- Algorithm
!-   ===========  ALL OBJECTS IN CLASS: SURFACECONVECTIONALGORITHM:OUTSIDE ===========
SurfaceConvectionAlgorithm:Outside,
    DOE-2;                   !- Algorithm
!-   ===========  ALL OBJECTS IN CLASS: TIMESTEP ===========
Timestep,
    6;                       !- Number of Timesteps per Hour
!-   ===========  ALL OBJECTS IN CLASS: LIFECYCLECOST:NONRECURRINGCOST ===========
LifeCycleCost:NonrecurringCost,
    Default Cost,            !- Name
    Construction,            !- Category
    0,                       !- Cost
    ServicePeriod;           !- Start of Costs
!-   ===========  ALL OBJECTS IN CLASS: OUTPUT:VARIABLEDICTIONARY ===========
Output:VariableDictionary,
    IDF,                     !- Key Field
    Unsorted;                !- Sort Option
!-   ===========  ALL OBJECTS IN CLASS: OUTPUT:TABLE:SUMMARYREPORTS ===========
Output:Table:SummaryReports,
    AllSummary;              !- Report 1 Name
!-   ===========  ALL OBJECTS IN CLASS: OUTPUT:TABLE:MONTHLY ===========
Output:Table:Monthly,
    FanSplit,                !- Name
    3,                       !- Digits After Decimal
    Air System Cooling Coil Total Cooling Energy,  !- Variable or Meter 1 Name
    HoursNonZero,            !- Aggregation Type for Variable or Meter 1
    Air System Fan Electricity Energy,  !- Variable or Meter 2 Name
    SumOrAverageDuringHoursShown,  !- Aggregation Type for Variable or Meter 2
    Air System Heating Coil Total Heating Energy,  !- Variable or Meter 3 Name
    HoursNonZero,            !- Aggregation Type for Variable or Meter 3
    Air System Fan Electricity Energy,  !- Variable or Meter 4 Name
    SumOrAverageDuringHoursShown,  !- Aggregation Type for Variable or Meter 4
    Air System Fan Electricity Energy,  !- Variable or Meter 5 Name
    SumOrAverage;            !- Aggregation Type for Variable or Meter 5
!-   ===========  ALL OBJECTS IN CLASS: OUTPUTCONTROL:TABLE:STYLE ===========
OutputControl:Table:Style,
    HTML,                    !- Column Separator
    InchPound;               !- Unit Conversion
!-   ===========  ALL OBJECTS IN CLASS: OUTPUTCONTROL:REPORTINGTOLERANCES ===========
OutputControl:ReportingTolerances,
    0.56,                    !- Tolerance for Time Heating Setpoint Not Met {deltaC}
    0.56;                    !- Tolerance for Time Cooling Setpoint Not Met {deltaC}
!-   ===========  ALL OBJECTS IN CLASS: OUTPUT:VARIABLE ===========
Output:Variable,
    *,                       !- Key Value
    Chiller Evaporator Cooling Rate,  !- Variable Name
    Hourly;                  !- Reporting Frequency
Output:Variable,
    *,                       !- Key Value
    Cooling Tower Heat Transfer Rate,  !- Variable Name
    Hourly;                  !- Reporting Frequency
Output:Variable,
    *,                       !- Key Value
    Boiler Heating Rate,     !- Variable Name
    Hourly;                  !- Reporting Frequency
Output:Variable,
    *,                       !- Key Value
    Site Outdoor Air Drybulb Temperature,  !- Variable Name
    Timestep;                !- Reporting Frequency
Output:Variable,
    *,                       !- Key Value
    Zone Air Terminal Outdoor Air Volume Flow Rate,  !- Variable Name
    Hourly;                  !- Reporting Frequency
Output:Variable,
    *,                       !- Key Value
    People Sensible Heating Rate,  !- Variable Name
    Hourly;                  !- Reporting Frequency
Output:Variable,
    *,                       !- Key Value
    People Latent Gain Rate, !- Variable Name
    Hourly;                  !- Reporting Frequency
Output:Variable,
    *,                       !- Key Value
    Water Use Equipment Hot Water Temperature,  !- Variable Name
    Hourly;                  !- Reporting Frequency
Output:Variable,
    *,                       !- Key Value
    Water Use Equipment Cold Water Temperature,  !- Variable Name
    Hourly;                  !- Reporting Frequency
Output:Variable,
    *,                       !- Key Value
    Water Use Equipment Target Water Temperature,  !- Variable Name
    Hourly;                  !- Reporting Frequency
Output:Variable,
    *,                       !- Key Value
    Water Use Equipment Mixed Water Temperature,  !- Variable Name
    Hourly;                  !- Reporting Frequency
!-   ===========  ALL OBJECTS IN CLASS: OUTPUT:METER:METERFILEONLY ===========
Output:Meter:MeterFileOnly,
    Coal:Facility,           !- Key Name
    Hourly;                  !- Reporting Frequency
Output:Meter:MeterFileOnly,
    Cogeneration:Coal,       !- Key Name
    Hourly;                  !- Reporting Frequency
Output:Meter:MeterFileOnly,
    Cogeneration:DistrictCooling,  !- Key Name
    Hourly;                  !- Reporting Frequency
Output:Meter:MeterFileOnly,
    Cogeneration:DistrictHeating,  !- Key Name
    Hourly;                  !- Reporting Frequency
Output:Meter:MeterFileOnly,
    Cogeneration:Electricity,!- Key Name
    Hourly;                  !- Reporting Frequency
Output:Meter:MeterFileOnly,
    Cogeneration:NaturalGas, !- Key Name
    Hourly;                  !- Reporting Frequency
Output:Meter:MeterFileOnly,
    ComplianceLtg:InteriorLights:Electricity,  !- Key Name
    Hourly;                  !- Reporting Frequency
Output:Meter:MeterFileOnly,
    Cooling:Coal,            !- Key Name
    Hourly;                  !- Reporting Frequency
Output:Meter:MeterFileOnly,
    Cooling:DistrictCooling, !- Key Name
    Hourly;                  !- Reporting Frequency
Output:Meter:MeterFileOnly,
    Cooling:DistrictHeating, !- Key Name
    Hourly;                  !- Reporting Frequency
Output:Meter:MeterFileOnly,
    Cooling:Electricity,     !- Key Name
    Hourly;                  !- Reporting Frequency
Output:Meter:MeterFileOnly,
    Cooling:NaturalGas,      !- Key Name
    Hourly;                  !- Reporting Frequency
Output:Meter:MeterFileOnly,
    DistrictCooling:Facility,!- Key Name
    Hourly;                  !- Reporting Frequency
Output:Meter:MeterFileOnly,
    DistrictHeating:Facility,!- Key Name
    Hourly;                  !- Reporting Frequency
Output:Meter:MeterFileOnly,
    Electricity:Facility,    !- Key Name
    Hourly;                  !- Reporting Frequency
Output:Meter:MeterFileOnly,
    ExteriorEquipment:Coal,  !- Key Name
    Hourly;                  !- Reporting Frequency
Output:Meter:MeterFileOnly,
    ExteriorEquipment:DistrictCooling,  !- Key Name
    Hourly;                  !- Reporting Frequency
Output:Meter:MeterFileOnly,
    ExteriorEquipment:DistrictHeating,  !- Key Name
    Hourly;                  !- Reporting Frequency
Output:Meter:MeterFileOnly,
    ExteriorEquipment:Electricity,  !- Key Name
    Hourly;                  !- Reporting Frequency
Output:Meter:MeterFileOnly,
    ExteriorEquipment:NaturalGas,  !- Key Name
    Hourly;                  !- Reporting Frequency
Output:Meter:MeterFileOnly,
    ExteriorLights:Coal,     !- Key Name
    Hourly;                  !- Reporting Frequency
Output:Meter:MeterFileOnly,
    ExteriorLights:DistrictCooling,  !- Key Name
    Hourly;                  !- Reporting Frequency
Output:Meter:MeterFileOnly,
    ExteriorLights:DistrictHeating,  !- Key Name
    Hourly;                  !- Reporting Frequency
Output:Meter:MeterFileOnly,
    ExteriorLights:Electricity,  !- Key Name
    Hourly;                  !- Reporting Frequency
Output:Meter:MeterFileOnly,
    ExteriorLights:NaturalGas,  !- Key Name
    Hourly;                  !- Reporting Frequency
Output:Meter:MeterFileOnly,
    Fans:Coal,               !- Key Name
    Hourly;                  !- Reporting Frequency
Output:Meter:MeterFileOnly,
    Fans:DistrictCooling,    !- Key Name
    Hourly;                  !- Reporting Frequency
Output:Meter:MeterFileOnly,
    Fans:DistrictHeating,    !- Key Name
    Hourly;                  !- Reporting Frequency
Output:Meter:MeterFileOnly,
    Fans:Electricity,        !- Key Name
    Hourly;                  !- Reporting Frequency
Output:Meter:MeterFileOnly,
    Fans:NaturalGas,         !- Key Name
    Hourly;                  !- Reporting Frequency
Output:Meter:MeterFileOnly,
    Heating:Coal,            !- Key Name
    Hourly;                  !- Reporting Frequency
Output:Meter:MeterFileOnly,
    Heating:DistrictCooling, !- Key Name
    Hourly;                  !- Reporting Frequency
Output:Meter:MeterFileOnly,
    Heating:DistrictHeating, !- Key Name
    Hourly;                  !- Reporting Frequency
Output:Meter:MeterFileOnly,
    Heating:Electricity,     !- Key Name
    Hourly;                  !- Reporting Frequency
Output:Meter:MeterFileOnly,
    Heating:NaturalGas,      !- Key Name
    Hourly;                  !- Reporting Frequency
Output:Meter:MeterFileOnly,
    HeatRecovery:Coal,       !- Key Name
    Hourly;                  !- Reporting Frequency
Output:Meter:MeterFileOnly,
    HeatRecovery:DistrictCooling,  !- Key Name
    Hourly;                  !- Reporting Frequency
Output:Meter:MeterFileOnly,
    HeatRecovery:DistrictHeating,  !- Key Name
    Hourly;                  !- Reporting Frequency
Output:Meter:MeterFileOnly,
    HeatRecovery:Electricity,!- Key Name
    Hourly;                  !- Reporting Frequency
Output:Meter:MeterFileOnly,
    HeatRecovery:NaturalGas, !- Key Name
    Hourly;                  !- Reporting Frequency
Output:Meter:MeterFileOnly,
    HeatRejection:Coal,      !- Key Name
    Hourly;                  !- Reporting Frequency
Output:Meter:MeterFileOnly,
    HeatRejection:DistrictCooling,  !- Key Name
    Hourly;                  !- Reporting Frequency
Output:Meter:MeterFileOnly,
    HeatRejection:DistrictHeating,  !- Key Name
    Hourly;                  !- Reporting Frequency
Output:Meter:MeterFileOnly,
    HeatRejection:Electricity,  !- Key Name
    Hourly;                  !- Reporting Frequency
Output:Meter:MeterFileOnly,
    HeatRejection:NaturalGas,!- Key Name
    Hourly;                  !- Reporting Frequency
Output:Meter:MeterFileOnly,
    Humidifier:Coal,         !- Key Name
    Hourly;                  !- Reporting Frequency
Output:Meter:MeterFileOnly,
    Humidifier:DistrictCooling,  !- Key Name
    Hourly;                  !- Reporting Frequency
Output:Meter:MeterFileOnly,
    Humidifier:DistrictHeating,  !- Key Name
    Hourly;                  !- Reporting Frequency
Output:Meter:MeterFileOnly,
    Humidifier:Electricity,  !- Key Name
    Hourly;                  !- Reporting Frequency
Output:Meter:MeterFileOnly,
    Humidifier:NaturalGas,   !- Key Name
    Hourly;                  !- Reporting Frequency
Output:Meter:MeterFileOnly,
    InteriorEquipment:Coal,  !- Key Name
    Hourly;                  !- Reporting Frequency
Output:Meter:MeterFileOnly,
    InteriorEquipment:DistrictCooling,  !- Key Name
    Hourly;                  !- Reporting Frequency
Output:Meter:MeterFileOnly,
    InteriorEquipment:DistrictHeating,  !- Key Name
    Hourly;                  !- Reporting Frequency
Output:Meter:MeterFileOnly,
    InteriorEquipment:Electricity,  !- Key Name
    Hourly;                  !- Reporting Frequency
Output:Meter:MeterFileOnly,
    InteriorEquipment:NaturalGas,  !- Key Name
    Hourly;                  !- Reporting Frequency
Output:Meter:MeterFileOnly,
    InteriorLights:Coal,     !- Key Name
    Hourly;                  !- Reporting Frequency
Output:Meter:MeterFileOnly,
    InteriorLights:DistrictCooling,  !- Key Name
    Hourly;                  !- Reporting Frequency
Output:Meter:MeterFileOnly,
    InteriorLights:DistrictHeating,  !- Key Name
    Hourly;                  !- Reporting Frequency
Output:Meter:MeterFileOnly,
    InteriorLights:Electricity,  !- Key Name
    Hourly;                  !- Reporting Frequency
Output:Meter:MeterFileOnly,
    InteriorLights:NaturalGas,  !- Key Name
    Hourly;                  !- Reporting Frequency
Output:Meter:MeterFileOnly,
    Internal Transport:InteriorEquipment:Electricity,  !- Key Name
    Hourly;                  !- Reporting Frequency
Output:Meter:MeterFileOnly,
    NaturalGas:Facility,     !- Key Name
    Hourly;                  !- Reporting Frequency
Output:Meter:MeterFileOnly,
    NonComplianceLtg:InteriorLights:Electricity,  !- Key Name
    Hourly;                  !- Reporting Frequency
Output:Meter:MeterFileOnly,
    NonReg Ltg:ExteriorLights:Electricity,  !- Key Name
    Hourly;                  !- Reporting Frequency
Output:Meter:MeterFileOnly,
    Process:ExteriorEquipment:Electricity,  !- Key Name
    Hourly;                  !- Reporting Frequency
Output:Meter:MeterFileOnly,
    Process:ExteriorEquipment:NaturalGas,  !- Key Name
    Hourly;                  !- Reporting Frequency
Output:Meter:MeterFileOnly,
    Process:InteriorEquipment:Electricity,  !- Key Name
    Hourly;                  !- Reporting Frequency
Output:Meter:MeterFileOnly,
    Process:InteriorEquipment:NaturalGas,  !- Key Name
    Hourly;                  !- Reporting Frequency
Output:Meter:MeterFileOnly,
    Pumps:Coal,              !- Key Name
    Hourly;                  !- Reporting Frequency
Output:Meter:MeterFileOnly,
    Pumps:DistrictCooling,   !- Key Name
    Hourly;                  !- Reporting Frequency
Output:Meter:MeterFileOnly,
    Pumps:DistrictHeating,   !- Key Name
    Hourly;                  !- Reporting Frequency
Output:Meter:MeterFileOnly,
    Pumps:Electricity,       !- Key Name
    Hourly;                  !- Reporting Frequency
Output:Meter:MeterFileOnly,
    Pumps:NaturalGas,        !- Key Name
    Hourly;                  !- Reporting Frequency
Output:Meter:MeterFileOnly,
    Receptacle:ExteriorEquipment:Electricity,  !- Key Name
    Hourly;                  !- Reporting Frequency
Output:Meter:MeterFileOnly,
    Receptacle:ExteriorEquipment:NaturalGas,  !- Key Name
    Hourly;                  !- Reporting Frequency
Output:Meter:MeterFileOnly,
    Receptacle:InteriorEquipment:Electricity,  !- Key Name
    Hourly;                  !- Reporting Frequency
Output:Meter:MeterFileOnly,
    Receptacle:InteriorEquipment:NaturalGas,  !- Key Name
    Hourly;                  !- Reporting Frequency
Output:Meter:MeterFileOnly,
    Refrig:ExteriorEquipment:Electricity,  !- Key Name
    Hourly;                  !- Reporting Frequency
Output:Meter:MeterFileOnly,
    Refrig:InteriorEquipment:Electricity,  !- Key Name
    Hourly;                  !- Reporting Frequency
Output:Meter:MeterFileOnly,
    Refrigeration:Coal,      !- Key Name
    Hourly;                  !- Reporting Frequency
Output:Meter:MeterFileOnly,
    Refrigeration:DistrictCooling,  !- Key Name
    Hourly;                  !- Reporting Frequency
Output:Meter:MeterFileOnly,
    Refrigeration:DistrictHeating,  !- Key Name
    Hourly;                  !- Reporting Frequency
Output:Meter:MeterFileOnly,
    Refrigeration:Electricity,  !- Key Name
    Hourly;                  !- Reporting Frequency
Output:Meter:MeterFileOnly,
    Refrigeration:NaturalGas,!- Key Name
    Hourly;                  !- Reporting Frequency
Output:Meter:MeterFileOnly,
    Reg Ltg:ExteriorLights:Electricity,  !- Key Name
    Hourly;                  !- Reporting Frequency
Output:Meter:MeterFileOnly,
    WaterSystems:Coal,       !- Key Name
    Hourly;                  !- Reporting Frequency
Output:Meter:MeterFileOnly,
    WaterSystems:DistrictCooling,  !- Key Name
    Hourly;                  !- Reporting Frequency
Output:Meter:MeterFileOnly,
    WaterSystems:DistrictHeating,  !- Key Name
    Hourly;                  !- Reporting Frequency
Output:Meter:MeterFileOnly,
    WaterSystems:Electricity,!- Key Name
    Hourly;                  !- Reporting Frequency
Output:Meter:MeterFileOnly,
    WaterSystems:NaturalGas, !- Key Name
    Hourly;                  !- Reporting Frequency
!-   ===========  ALL OBJECTS IN CLASS: OUTPUT:SQLITE ===========
Output:SQLite,
    SimpleAndTabular;        !- Option Type
!-Generator IDFEditor 1.53
!-Option SortedOrder
!-NOTE: All comments with '!-' are ignored by the IDFEditor and are generated automatically.
!-      Use '!' comments if they need to be retained when using the IDFEditor.
!-   ===========  ALL OBJECTS IN CLASS: SCHEDULETYPELIMITS ===========
ScheduleTypeLimits,
    any number;              !- Name
ScheduleTypeLimits,
    fraction,                !- Name
    0,                       !- Lower Limit Value
    1,                       !- Upper Limit Value
    Continuous;              !- Numeric Type
!-   ===========  ALL OBJECTS IN CLASS: SCHEDULE:DAY:HOURLY ===========
Schedule:Day:Hourly,
    ActivityDay,             !- Name
    Fraction,                !- Schedule Type Limits Name
    0.42683,                 !- Hour 1
    0.42683,                 !- Hour 2
    0.42683,                 !- Hour 3
    0.42683,                 !- Hour 4
    0.42683,                 !- Hour 5
    0.71951,                 !- Hour 6
    1.0,                     !- Hour 7
    0.67073,                 !- Hour 8
    0.32927,                 !- Hour 9
    0.17073,                 !- Hour 10
    0.17073,                 !- Hour 11
    0.17073,                 !- Hour 12
    0.17073,                 !- Hour 13
    0.17073,                 !- Hour 14
    0.23171,                 !- Hour 15
    0.32927,                 !- Hour 16
    0.5,                     !- Hour 17
    0.67073,                 !- Hour 18
    0.82927,                 !- Hour 19
    1.0,                     !- Hour 20
    1.0,                     !- Hour 21
    0.85366,                 !- Hour 22
    0.64634,                 !- Hour 23
    0.42683;                 !- Hour 24
Schedule:Day:Hourly,
    BathtubWeekday,          !- Name
    fraction,                !- Schedule Type Limits Name
    0,                       !- Hour 1
    0,                       !- Hour 2
    0,                       !- Hour 3
    0,                       !- Hour 4
    0,                       !- Hour 5
    0,                       !- Hour 6
    0,                       !- Hour 7
    0.22,                    !- Hour 8
    0.1,                     !- Hour 9
    0.29,                    !- Hour 10
    0.14,                    !- Hour 11
    0.04,                    !- Hour 12
    0.12,                    !- Hour 13
    0.17,                    !- Hour 14
    0.18,                    !- Hour 15
    0,                       !- Hour 16
    0.11,                    !- Hour 17
    0.22,                    !- Hour 18
    0.34,                    !- Hour 19
    1,                       !- Hour 20
    0.03,                    !- Hour 21
    0.56,                    !- Hour 22
    0.02,                    !- Hour 23
    0;                       !- Hour 24
Schedule:Day:Hourly,
    BathtubWeekend,          !- Name
    fraction,                !- Schedule Type Limits Name
    0,                       !- Hour 1
    0,                       !- Hour 2
    0,                       !- Hour 3
    0,                       !- Hour 4
    0,                       !- Hour 5
    0,                       !- Hour 6
    0,                       !- Hour 7
    0.37,                    !- Hour 8
    0.42,                    !- Hour 9
    0.16,                    !- Hour 10
    0,                       !- Hour 11
    0,                       !- Hour 12
    0,                       !- Hour 13
    0.12,                    !- Hour 14
    0.37,                    !- Hour 15
    0,                       !- Hour 16
    0.07,                    !- Hour 17
    0.29,                    !- Hour 18
    1,                       !- Hour 19
    0.12,                    !- Hour 20
    0,                       !- Hour 21
    0.6,                     !- Hour 22
    0.14,                    !- Hour 23
    0;                       !- Hour 24
Schedule:Day:Hourly,
    ClothesDryerVacation,    !- Name
    Fraction,                !- Schedule Type Limits Name
    0,                       !- Hour 1
    0,                       !- Hour 2
    0,                       !- Hour 3
    0,                       !- Hour 4
    0,                       !- Hour 5
    0,                       !- Hour 6
    0,                       !- Hour 7
    0,                       !- Hour 8
    0,                       !- Hour 9
    0,                       !- Hour 10
    0,                       !- Hour 11
    0,                       !- Hour 12
    0,                       !- Hour 13
    0,                       !- Hour 14
    0,                       !- Hour 15
    0,                       !- Hour 16
    0,                       !- Hour 17
    0,                       !- Hour 18
    0,                       !- Hour 19
    0,                       !- Hour 20
    0,                       !- Hour 21
    0,                       !- Hour 22
    0,                       !- Hour 23
    0;                       !- Hour 24
Schedule:Day:Hourly,
    ClothesDryerWeekday,     !- Name
    Fraction,                !- Schedule Type Limits Name
    0.0996818663838815,      !- Hour 1
    0.0598091198303289,      !- Hour 2
    0.0398727465535526,      !- Hour 3
    0.0199363732767763,      !- Hour 4
    0.0398727465535526,      !- Hour 5
    0.0598091198303289,      !- Hour 6
    0.15949098621421,        !- Hour 7
    0.31898197242842,        !- Hour 8
    0.486427370202556,       !- Hour 9
    0.685791102970318,       !- Hour 10
    0.785472969354199,       !- Hour 11
    0.817391304347826,       !- Hour 12
    0.745600222800647,       !- Hour 13
    0.677836691410393,       !- Hour 14
    0.610073160020138,       !- Hour 15
    0.578154825026511,       !- Hour 16
    0.558218451749735,       !- Hour 17
    0.546236490032885,       !- Hour 18
    0.518345705196183,       !- Hour 19
    0.510391293636256,       !- Hour 20
    0.526300116756109,       !- Hour 21
    0.546236490032885,       !- Hour 22
    0.438600212089077,       !- Hour 23
    0.239236479321316;       !- Hour 24
Schedule:Day:Hourly,
    ClothesDryerWeekend,     !- Name
    Fraction,                !- Schedule Type Limits Name
    0.121951219512195,       !- Hour 1
    0.0731707317073171,      !- Hour 2
    0.0487804878048781,      !- Hour 3
    0.024390243902439,       !- Hour 4
    0.0487804878048781,      !- Hour 5
    0.0731707317073171,      !- Hour 6
    0.195121951219512,       !- Hour 7
    0.390243902439024,       !- Hour 8
    0.59509731460951,        !- Hour 9
    0.8389997536339,         !- Hour 10
    0.960950973146095,       !- Hour 11
    1,                       !- Hour 12
    0.912170485341217,       !- Hour 13
    0.829268292682927,       !- Hour 14
    0.746366100024637,       !- Hour 15
    0.707317073170732,       !- Hour 16
    0.682926829268293,       !- Hour 17
    0.668268046316827,       !- Hour 18
    0.634146341463415,       !- Hour 19
    0.624414880512441,       !- Hour 20
    0.643877802414388,       !- Hour 21
    0.668268046316827,       !- Hour 22
    0.536585365853659,       !- Hour 23
    0.292682926829268;       !- Hour 24
Schedule:Day:Hourly,
    ClothesWasherWeekday,    !- Name
    fraction,                !- Schedule Type Limits Name
    0,                       !- Hour 1
    0,                       !- Hour 2
    0.02,                    !- Hour 3
    0.12,                    !- Hour 4
    0,                       !- Hour 5
    0.04,                    !- Hour 6
    0.13,                    !- Hour 7
    0.34,                    !- Hour 8
    0.52,                    !- Hour 9
    1,                       !- Hour 10
    0.67,                    !- Hour 11
    0.97,                    !- Hour 12
    0.21,                    !- Hour 13
    0.37,                    !- Hour 14
    0.18,                    !- Hour 15
    0.23,                    !- Hour 16
    0.13,                    !- Hour 17
    0.44,                    !- Hour 18
    0.42,                    !- Hour 19
    0.47,                    !- Hour 20
    0.36,                    !- Hour 21
    0.27,                    !- Hour 22
    0.41,                    !- Hour 23
    0.14;                    !- Hour 24
Schedule:Day:Hourly,
    ClothesWasherWeekend,    !- Name
    fraction,                !- Schedule Type Limits Name
    0,                       !- Hour 1
    0,                       !- Hour 2
    0.03,                    !- Hour 3
    0.04,                    !- Hour 4
    0,                       !- Hour 5
    0.13,                    !- Hour 6
    0.29,                    !- Hour 7
    0.46,                    !- Hour 8
    0.67,                    !- Hour 9
    1,                       !- Hour 10
    0.58,                    !- Hour 11
    0.72,                    !- Hour 12
    0.06,                    !- Hour 13
    0.28,                    !- Hour 14
    0.17,                    !- Hour 15
    0.57,                    !- Hour 16
    0.16,                    !- Hour 17
    0.42,                    !- Hour 18
    0.34,                    !- Hour 19
    0.7,                     !- Hour 20
    0.24,                    !- Hour 21
    0.58,                    !- Hour 22
    0.48,                    !- Hour 23
    0.22;                    !- Hour 24
Schedule:Day:Hourly,
    CookingRangeDay,         !- Name
    Fraction,                !- Schedule Type Limits Name
    0.04715848452508,        !- Hour 1
    0.04715848452508,        !- Hour 2
    0.0235458911419424,      !- Hour 3
    0.0235458911419424,      !- Hour 4
    0.04715848452508,        !- Hour 5
    0.0707043756670224,      !- Hour 6
    0.165088046958378,       !- Hour 7
    0.283017609391676,       !- Hour 8
    0.306563500533618,       !- Hour 9
    0.320771077908218,       !- Hour 10
    0.283017609391676,       !- Hour 11
    0.330176093916756,       !- Hour 12
    0.377334578441836,       !- Hour 13
    0.306563500533618,       !- Hour 14
    0.292422625400213,       !- Hour 15
    0.377334578441836,       !- Hour 16
    0.613193703308431,       !- Hour 17
    1,                       !- Hour 18
    0.778348452508004,       !- Hour 19
    0.400947171824973,       !- Hour 20
    0.235859124866596,       !- Hour 21
    0.165088046958378,       !- Hour 22
    0.103721985058698,       !- Hour 23
    0.0707043756670224;      !- Hour 24
Schedule:Day:Hourly,
    DishwasherWeekday,       !- Name
    fraction,                !- Schedule Type Limits Name
    0,                       !- Hour 1
    0.06,                    !- Hour 2
    0.31,                    !- Hour 3
    0.11,                    !- Hour 4
    0,                       !- Hour 5
    0,                       !- Hour 6
    0.01,                    !- Hour 7
    0.24,                    !- Hour 8
    0.61,                    !- Hour 9
    0.67,                    !- Hour 10
    0.47,                    !- Hour 11
    0.71,                    !- Hour 12
    0.53,                    !- Hour 13
    0.33,                    !- Hour 14
    0.11,                    !- Hour 15
    0.24,                    !- Hour 16
    0.1,                     !- Hour 17
    0.28,                    !- Hour 18
    0.4,                     !- Hour 19
    1,                       !- Hour 20
    0.84,                    !- Hour 21
    0.59,                    !- Hour 22
    0.41,                    !- Hour 23
    0.04;                    !- Hour 24
Schedule:Day:Hourly,
    DishwasherWeekend,       !- Name
    fraction,                !- Schedule Type Limits Name
    0,                       !- Hour 1
    0.27,                    !- Hour 2
    0.26,                    !- Hour 3
    0,                       !- Hour 4
    0,                       !- Hour 5
    0,                       !- Hour 6
    0.03,                    !- Hour 7
    0.59,                    !- Hour 8