! From counter.inc created by EP-Launch when running groups of files
! Output files                          ApartmentHighRise_T24-1978-1997-V2_7_San Diego
! Run description                       T24-1978-1997-V2: 7: San Diego
! Parent Run
! Run Flag                              True
! Weather                               USA_CA_722900_SAN-DIEGO-INTL_TMY_2000-2020K.epw
! Default equipment values. May be overridden by later values.
! End of default equipment values.
     ! Case                                            T24-1978-1997-V2
     ! City                                            San Diego
     ! Includes
!-Generator IDFEditor 1.55
!-Option SortedOrder ViewInIPunits
!-NOTE: All comments with '!-' are ignored by the IDFEditor and are generated automatically.
!-      Use '!' comments if they need to be retained when using the IDFEditor.
!-   ===========  ALL OBJECTS IN CLASS: VERSION ===========
Version,
    25.1;                    !- Version Identifier
!-   ===========  ALL OBJECTS IN CLASS: SIMULATIONCONTROL ===========
SimulationControl,
    Yes,                     !- Do Zone Sizing Calculation
    Yes,                     !- Do System Sizing Calculation
    Yes,                     !- Do Plant Sizing Calculation
    Yes,                      !- Run Simulation for Sizing Periods
    Yes,                     !- Run Simulation for Weather File Run Periods
    ,                        !- Do HVAC Sizing Simulation for Sizing Periods
    ;                        !- Maximum Number of HVAC Sizing Simulation Passes
!-   ===========  ALL OBJECTS IN CLASS: BUILDING ===========
Building,
    ApartmentHighRise,             !- Name
    0,                       !- North Axis {deg}
    ,                        !- Terrain
    0.5,                     !- Loads Convergence Tolerance Value {W}
    0.5,                     !- Temperature Convergence Tolerance Value {deltaC}
    FullExterior,            !- Solar Distribution
    50,                      !- Maximum Number of Warmup Days
    ;                        !- Minimum Number of Warmup Days
!-   ===========  ALL OBJECTS IN CLASS: TIMESTEP ===========
Timestep,
    4;                       !- Number of Timesteps per Hour
!-   ===========  ALL OBJECTS IN CLASS: LIFECYCLECOST:NONRECURRINGCOST ===========
LifeCycleCost:NonrecurringCost,
    Default Cost,            !- Name
    Construction,            !- Category
    0,                       !- Cost
    ServicePeriod;           !- Start of Costs
!-   ===========  ALL OBJECTS IN CLASS: OUTPUT:VARIABLEDICTIONARY ===========
Output:VariableDictionary,
    IDF,                     !- Key Field
    Unsorted;                !- Sort Option
!-   ===========  ALL OBJECTS IN CLASS: OUTPUT:TABLE:SUMMARYREPORTS ===========
Output:Table:SummaryReports,
    AllSummary;              !- Report 1 Name
!-   ===========  ALL OBJECTS IN CLASS: OUTPUTCONTROL:TABLE:STYLE ===========
OutputControl:Table:Style,
    HTML,                    !- Column Separator
    InchPound;               !- Unit Conversion
!-   ===========  ALL OBJECTS IN CLASS: OUTPUTCONTROL:REPORTINGTOLERANCES ===========
OutputControl:ReportingTolerances,
    1.38888888888889,        !- Tolerance for Time Heating Setpoint Not Met {deltaC}
    1.38888888888889;        !- Tolerance for Time Cooling Setpoint Not Met {deltaC}
!-   ===========  ALL OBJECTS IN CLASS: OUTPUT:VARIABLE ===========
Output:Variable,
    *,                       !- Key Value
    Site Outdoor Air Drybulb Temperature,  !- Variable Name
    Hourly;                  !- Reporting Frequency
Output:Variable,
    *,                       !- Key Value
    Site Outdoor Air Humidity Ratio,  !- Variable Name
    Hourly;                  !- Reporting Frequency
Output:Variable,
    *,                       !- Key Value
    Air System Cooling Coil Total Cooling Energy,  !- Variable Name
    Hourly;                  !- Reporting Frequency
Output:Variable,
    *,                       !- Key Value
    Air System Heating Coil Total Heating Energy,  !- Variable Name
    Hourly;                  !- Reporting Frequency
Output:Variable,
    *,                       !- Key Value
    Fan Air Mass Flow Rate,  !- Variable Name
    Hourly;                  !- Reporting Frequency
Output:Variable,
    *,                       !- Key Value
    Air System Outdoor Air Mass Flow Rate,  !- Variable Name
    Hourly;                  !- Reporting Frequency
Output:Variable,
    *,                       !- Key Value
    Air System Outdoor Air Economizer Status,  !- Variable Name
    Hourly;                  !- Reporting Frequency
Output:Variable,
    *,                       !- Key Value
    Air System Total Cooling Energy,  !- Variable Name
    Hourly;                  !- Reporting Frequency
Output:Variable,
    *,                       !- Key Value
    Zone Mean Air Temperature,  !- Variable Name
    Hourly;                  !- Reporting Frequency
Output:Variable,
    *,                       !- Key Value
    Heating Coil Heating Energy,  !- Variable Name
    Hourly;                  !- Reporting Frequency
Output:Variable,
    *,                       !- Key Value
    Zone Thermostat Heating Setpoint Temperature,  !- Variable Name
    Hourly;                  !- Reporting Frequency
Output:Variable,
    *,                       !- Key Value
    Zone Thermostat Cooling Setpoint Temperature,  !- Variable Name
    Hourly;                  !- Reporting Frequency
!-   ===========  ALL OBJECTS IN CLASS: OUTPUT:METER ===========
Output:Meter,
    NaturalGas:Facility,     !- Key Name
    Hourly;                  !- Reporting Frequency
Output:Meter,
    ElectricityNet:Facility, !- Key Name
    Hourly;                  !- Reporting Frequency
!-   ===========  ALL OBJECTS IN CLASS: OUTPUT:METER:METERFILEONLY ===========
Output:Meter:MeterFileOnly,
    ComplianceLtg:InteriorLights:Electricity,  !- Key Name
    Hourly;                  !- Reporting Frequency
Output:Meter:MeterFileOnly,
    Cooling:Coal,            !- Key Name
    Hourly;                  !- Reporting Frequency
Output:Meter:MeterFileOnly,
    Cooling:DistrictCooling, !- Key Name
    Hourly;                  !- Reporting Frequency
Output:Meter:MeterFileOnly,
    Cooling:DistrictHeating, !- Key Name
    Hourly;                  !- Reporting Frequency
Output:Meter:MeterFileOnly,
    Cooling:Electricity,     !- Key Name
    Hourly;                  !- Reporting Frequency
Output:Meter:MeterFileOnly,
    Cooling:NaturalGas,      !- Key Name
    Hourly;                  !- Reporting Frequency
Output:Meter:MeterFileOnly,
    DistrictCooling:Facility,!- Key Name
    Hourly;                  !- Reporting Frequency
Output:Meter:MeterFileOnly,
    DistrictHeatingWater:Facility,  !- Key Name
    Hourly;                  !- Reporting Frequency
Output:Meter:MeterFileOnly,
    Electricity:Facility,    !- Key Name
    Hourly;                  !- Reporting Frequency
Output:Meter:MeterFileOnly,
    ExteriorEquipment:Coal,  !- Key Name
    Hourly;                  !- Reporting Frequency
Output:Meter:MeterFileOnly,
    ExteriorEquipment:DistrictCooling,  !- Key Name
    Hourly;                  !- Reporting Frequency
Output:Meter:MeterFileOnly,
    ExteriorEquipment:DistrictHeatingWater,  !- Key Name
    Hourly;                  !- Reporting Frequency
Output:Meter:MeterFileOnly,
    ExteriorEquipment:Electricity,  !- Key Name
    Hourly;                  !- Reporting Frequency
Output:Meter:MeterFileOnly,
    ExteriorEquipment:NaturalGas,  !- Key Name
    Hourly;                  !- Reporting Frequency
Output:Meter:MeterFileOnly,
    ExteriorLights:Coal,     !- Key Name
    Hourly;                  !- Reporting Frequency
Output:Meter:MeterFileOnly,
    ExteriorLights:DistrictCooling,  !- Key Name
    Hourly;                  !- Reporting Frequency
Output:Meter:MeterFileOnly,
    ExteriorLights:DistrictHeating,  !- Key Name
    Hourly;                  !- Reporting Frequency
Output:Meter:MeterFileOnly,
    ExteriorLights:Electricity,  !- Key Name
    Hourly;                  !- Reporting Frequency
Output:Meter:MeterFileOnly,
    ExteriorLights:NaturalGas,  !- Key Name
    Hourly;                  !- Reporting Frequency
Output:Meter:MeterFileOnly,
    Fans:Coal,               !- Key Name
    Hourly;                  !- Reporting Frequency
Output:Meter:MeterFileOnly,
    Fans:DistrictCooling,    !- Key Name
    Hourly;                  !- Reporting Frequency
Output:Meter:MeterFileOnly,
    Fans:DistrictHeating,    !- Key Name
    Hourly;                  !- Reporting Frequency
Output:Meter:MeterFileOnly,
    Fans:Electricity,        !- Key Name
    Hourly;                  !- Reporting Frequency
Output:Meter:MeterFileOnly,
    Fans:NaturalGas,         !- Key Name
    Hourly;                  !- Reporting Frequency
Output:Meter:MeterFileOnly,
    General:Fans:Electricity,!- Key Name
    Hourly;                  !- Reporting Frequency
Output:Meter:MeterFileOnly,
    Heating:Coal,            !- Key Name
    Hourly;                  !- Reporting Frequency
Output:Meter:MeterFileOnly,
    Heating:DistrictCooling, !- Key Name
    Hourly;                  !- Reporting Frequency
Output:Meter:MeterFileOnly,
    Heating:DistrictHeatingWater,  !- Key Name
    Hourly;                  !- Reporting Frequency
Output:Meter:MeterFileOnly,
    Heating:Electricity,     !- Key Name
    Hourly;                  !- Reporting Frequency
Output:Meter:MeterFileOnly,
    Heating:NaturalGas,      !- Key Name
    Hourly;                  !- Reporting Frequency
Output:Meter:MeterFileOnly,
    HeatRecovery:Coal,       !- Key Name
    Hourly;                  !- Reporting Frequency
Output:Meter:MeterFileOnly,
    HeatRecovery:DistrictCooling,  !- Key Name
    Hourly;                  !- Reporting Frequency
Output:Meter:MeterFileOnly,
    HeatRecovery:DistrictHeating,  !- Key Name
    Hourly;                  !- Reporting Frequency
Output:Meter:MeterFileOnly,
    HeatRecovery:Electricity,!- Key Name
    Hourly;                  !- Reporting Frequency
Output:Meter:MeterFileOnly,
    HeatRecovery:NaturalGas, !- Key Name
    Hourly;                  !- Reporting Frequency
Output:Meter:MeterFileOnly,
    HeatRejection:Coal,      !- Key Name
    Hourly;                  !- Reporting Frequency
Output:Meter:MeterFileOnly,
    HeatRejection:DistrictCooling,  !- Key Name
    Hourly;                  !- Reporting Frequency
Output:Meter:MeterFileOnly,
    HeatRejection:DistrictHeating,  !- Key Name
    Hourly;                  !- Reporting Frequency
Output:Meter:MeterFileOnly,
    HeatRejection:Electricity,  !- Key Name
    Hourly;                  !- Reporting Frequency
Output:Meter:MeterFileOnly,
    HeatRejection:NaturalGas,!- Key Name
    Hourly;                  !- Reporting Frequency
Output:Meter:MeterFileOnly,
    Humidifier:Coal,         !- Key Name
    Hourly;                  !- Reporting Frequency
Output:Meter:MeterFileOnly,
    Humidifier:DistrictCooling,  !- Key Name
    Hourly;                  !- Reporting Frequency
Output:Meter:MeterFileOnly,
    Humidifier:DistrictHeating,  !- Key Name
    Hourly;                  !- Reporting Frequency
Output:Meter:MeterFileOnly,
    Humidifier:Electricity,  !- Key Name
    Hourly;                  !- Reporting Frequency
Output:Meter:MeterFileOnly,
    Humidifier:NaturalGas,   !- Key Name
    Hourly;                  !- Reporting Frequency
Output:Meter:MeterFileOnly,
    InteriorEquipment:Coal,  !- Key Name
    Hourly;                  !- Reporting Frequency
Output:Meter:MeterFileOnly,
    InteriorEquipment:DistrictCooling,  !- Key Name
    Hourly;                  !- Reporting Frequency
Output:Meter:MeterFileOnly,
    InteriorEquipment:DistrictHeating,  !- Key Name
    Hourly;                  !- Reporting Frequency
Output:Meter:MeterFileOnly,
    InteriorEquipment:Electricity,  !- Key Name
    Hourly;                  !- Reporting Frequency
Output:Meter:MeterFileOnly,
    InteriorEquipment:NaturalGas,  !- Key Name
    Hourly;                  !- Reporting Frequency
Output:Meter:MeterFileOnly,
    InteriorLights:Coal,     !- Key Name
    Hourly;                  !- Reporting Frequency
Output:Meter:MeterFileOnly,
    InteriorLights:DistrictCooling,  !- Key Name
    Hourly;                  !- Reporting Frequency
Output:Meter:MeterFileOnly,
    InteriorLights:DistrictHeating,  !- Key Name
    Hourly;                  !- Reporting Frequency
Output:Meter:MeterFileOnly,
    InteriorLights:Electricity,  !- Key Name
    Hourly;                  !- Reporting Frequency
Output:Meter:MeterFileOnly,
    InteriorLights:NaturalGas,  !- Key Name
    Hourly;                  !- Reporting Frequency
Output:Meter:MeterFileOnly,
    Internal Transport:InteriorEquipment:Electricity,  !- Key Name
    Hourly;                  !- Reporting Frequency
Output:Meter:MeterFileOnly,
    NaturalGas:Facility,     !- Key Name
    Hourly;                  !- Reporting Frequency
Output:Meter:MeterFileOnly,
    NonComplianceLtg:InteriorLights:Electricity,  !- Key Name
    Hourly;                  !- Reporting Frequency
Output:Meter:MeterFileOnly,
    NonReg Ltg:ExteriorLights:Electricity,  !- Key Name
    Hourly;                  !- Reporting Frequency
Output:Meter:MeterFileOnly,
    Process:ExteriorEquipment:Electricity,  !- Key Name
    Hourly;                  !- Reporting Frequency
Output:Meter:MeterFileOnly,
    Process:ExteriorEquipment:NaturalGas,  !- Key Name
    Hourly;                  !- Reporting Frequency
Output:Meter:MeterFileOnly,
    Process:InteriorEquipment:Electricity,  !- Key Name
    Hourly;                  !- Reporting Frequency
Output:Meter:MeterFileOnly,
    Process:InteriorEquipment:NaturalGas,  !- Key Name
    Hourly;                  !- Reporting Frequency
Output:Meter:MeterFileOnly,
    Pumps:Coal,              !- Key Name
    Hourly;                  !- Reporting Frequency
Output:Meter:MeterFileOnly,
    Pumps:DistrictCooling,   !- Key Name
    Hourly;                  !- Reporting Frequency
Output:Meter:MeterFileOnly,
    Pumps:DistrictHeating,   !- Key Name
    Hourly;                  !- Reporting Frequency
Output:Meter:MeterFileOnly,
    Pumps:Electricity,       !- Key Name
    Hourly;                  !- Reporting Frequency
Output:Meter:MeterFileOnly,
    Pumps:NaturalGas,        !- Key Name
    Hourly;                  !- Reporting Frequency
Output:Meter:MeterFileOnly,
    Receptacle:ExteriorEquipment:Electricity,  !- Key Name
    Hourly;                  !- Reporting Frequency
Output:Meter:MeterFileOnly,
    Receptacle:ExteriorEquipment:NaturalGas,  !- Key Name
    Hourly;                  !- Reporting Frequency
Output:Meter:MeterFileOnly,
    Receptacle:InteriorEquipment:Electricity,  !- Key Name
    Hourly;                  !- Reporting Frequency
Output:Meter:MeterFileOnly,
    Receptacle:InteriorEquipment:NaturalGas,  !- Key Name
    Hourly;                  !- Reporting Frequency
Output:Meter:MeterFileOnly,
    Refrig:ExteriorEquipment:Electricity,  !- Key Name
    Hourly;                  !- Reporting Frequency
Output:Meter:MeterFileOnly,
    Refrig:InteriorEquipment:Electricity,  !- Key Name
    Hourly;                  !- Reporting Frequency
Output:Meter:MeterFileOnly,
    Refrigeration:Coal,      !- Key Name
    Hourly;                  !- Reporting Frequency
Output:Meter:MeterFileOnly,
    Refrigeration:DistrictCooling,  !- Key Name
    Hourly;                  !- Reporting Frequency
Output:Meter:MeterFileOnly,
    Refrigeration:DistrictHeating,  !- Key Name
    Hourly;                  !- Reporting Frequency
Output:Meter:MeterFileOnly,
    Refrigeration:Electricity,  !- Key Name
    Hourly;                  !- Reporting Frequency
Output:Meter:MeterFileOnly,
    Refrigeration:NaturalGas,!- Key Name
    Hourly;                  !- Reporting Frequency
Output:Meter:MeterFileOnly,
    Reg Ltg:ExteriorLights:Electricity,  !- Key Name
    Hourly;                  !- Reporting Frequency
Output:Meter:MeterFileOnly,
    WaterSystems:Coal,       !- Key Name
    Hourly;                  !- Reporting Frequency
Output:Meter:MeterFileOnly,
    WaterSystems:DistrictCooling,  !- Key Name
    Hourly;                  !- Reporting Frequency
Output:Meter:MeterFileOnly,
    WaterSystems:DistrictHeating,  !- Key Name
    Hourly;                  !- Reporting Frequency
Output:Meter:MeterFileOnly,
    WaterSystems:Electricity,!- Key Name
    Hourly;                  !- Reporting Frequency
Output:Meter:MeterFileOnly,
    WaterSystems:NaturalGas, !- Key Name
    Hourly;                  !- Reporting Frequency
!-   ===========  ALL OBJECTS IN CLASS: OUTPUT:SQLITE ===========
Output:SQLite,
    SimpleAndTabular;        !- Option Type
!-Generator IDFEditor 1.55
!-Option SortedOrder ViewInIPunits
!-NOTE: All comments with '!-' are ignored by the IDFEditor and are generated automatically.
!-      Use '!' comments if they need to be retained when using the IDFEditor.
!-   ===========  ALL OBJECTS IN CLASS: MATERIAL ===========
Material,
    Air - Metal Wall Framing - 16 or 24 in. OC,  !- Name
    Smooth,                  !- Roughness
    0.1397,                  !- Thickness {m}
    1.22016793979183,        !- Conductivity {W/m-K}
    1.28147706991681,        !- Density {kg/m3}
    1004.832,                !- Specific Heat {J/kg-K}
    0.9,                     !- Thermal Absorptance
    0.7,                     !- Solar Absorptance
    0.7;                     !- Visible Absorptance
Material,
    ExtWall_MetalFramed_NonRes Insulation,  !- Name
    Smooth,                  !- Roughness
    0.001,  !- Thickness {m}
    0.0230187710627394,      !- Conductivity {W/m-K}
    16.0184633739601,        !- Density {kg/m3}
    1130.436,                !- Specific Heat {J/kg-K}
    0.9,                     !- Thermal Absorptance
    0.7,                     !- Solar Absorptance
    0.7;                     !- Visible Absorptance
Material,
    ExtWall_MetalBuilding_NonRes Insulation,  !- Name
    Smooth,                  !- Roughness
    0.00001,  !- Thickness {m}
    0.0230187710627394,      !- Conductivity {W/m-K}
    16.0184633739601,        !- Density {kg/m3}
    1130.436,                !- Specific Heat {J/kg-K}
    0.9,                     !- Thermal Absorptance
    0.7,                     !- Solar Absorptance
    0.7;                     !- Visible Absorptance
Material,
    ExtWall_MassLight_NonRes Insulation,  !- Name
    Smooth,                  !- Roughness
    0.00430615725,  !- Thickness {m}
    0.0230187710627394,      !- Conductivity {W/m-K}
    16.0184633739601,        !- Density {kg/m3}
    1130.436,                !- Specific Heat {J/kg-K}
    0.9,                     !- Thermal Absorptance
    0.7,                     !- Solar Absorptance
    0.7;                     !- Visible Absorptance
Material,
    Gypsum Board - 1/2 in.,  !- Name
    Smooth,                  !- Roughness
    0.0127,                  !- Thickness {m}
    0.158656446866265,       !- Conductivity {W/m-K}
    640.738534958406,        !- Density {kg/m3}
    1130.436,                !- Specific Heat {J/kg-K}
    0.9,                     !- Thermal Absorptance
    0.7,                     !- Solar Absorptance
    0.8;                     !- Visible Absorptance
Material,
    Gypsum Board - 5/8 in.,  !- Name
    MediumRough,             !- Roughness
    0.016002,                !- Thickness {m}
    0.158656446866265,       !- Conductivity {W/m-K}
    640.738534958406,        !- Density {kg/m3}
    1130.436,                !- Specific Heat {J/kg-K}
    0.9,                     !- Thermal Absorptance
    0.7,                     !- Solar Absorptance
    0.8;                     !- Visible Absorptance
Material,
    Metal Standing Seam - 1/16 in.,  !- Name
    Smooth,                  !- Roughness
    0.0015875,               !- Thickness {m}
    15.3629707,              !- Conductivity {W/m-K}
    7820.53418843482,        !- Density {kg/m3}
    502.416,                 !- Specific Heat {J/kg-K}
    0.85,                    !- Thermal Absorptance
    0.92,                    !- Solar Absorptance
    0.85;                    !- Visible Absorptance
Material,
    Stucco - 7/8 in.,        !- Name
    MediumRough,             !- Roughness
    0.022352,                !- Thickness {m}
    0.700947539880412,       !- Conductivity {W/m-K}
    1855.09824333832,        !- Density {kg/m3}
    837.36,                  !- Specific Heat {J/kg-K}
    0.9,                     !- Thermal Absorptance
    0.7,                     !- Solar Absorptance
    0.8;                     !- Visible Absorptance
Material,
    Concrete - 140 lb/ft3 - 4 in.,  !- Name
    MediumRough,             !- Roughness
    0.1016,                  !- Thickness {m}
    1.95140333633374,        !- Conductivity {W/m-K}
    2239.06081041215,        !- Density {kg/m3}
    921.096,                 !- Specific Heat {J/kg-K}
    0.9,                     !- Thermal Absorptance
    0.7,                     !- Solar Absorptance
    0.8;                     !- Visible Absorptance
Material,
    Concrete - 140 lb/ft3 - 8 in.,  !- Name
    MediumRough,             !- Roughness
    0.2032,                  !- Thickness {m}
    1.95140333633374,        !- Conductivity {W/m-K}
    2239.06081041215,        !- Density {kg/m3}
    921.096,                 !- Specific Heat {J/kg-K}
    0.9,                     !- Thermal Absorptance
    0.7,                     !- Solar Absorptance
    0.8;                     !- Visible Absorptance
Material,
    Carpet - 3/4 in.,        !- Name
    Smooth,                  !- Roughness
    0.01905,                 !- Thickness {m}
    0.0455183217255675,      !- Conductivity {W/m-K}
    288.332340731282,        !- Density {kg/m3}
    1381.644,                !- Specific Heat {J/kg-K}
    0.9,                     !- Thermal Absorptance
    0.7,                     !- Solar Absorptance
    0.8;                     !- Visible Absorptance
Material,
    Metal Deck - 1/16 in.,   !- Name
    MediumRough,             !- Roughness
    0.0015875,               !- Thickness {m}
    45.3452482589303,        !- Conductivity {W/m-K}
    7820.53418843482,        !- Density {kg/m3}
    502.416,                 !- Specific Heat {J/kg-K}
    0.9,                     !- Thermal Absorptance
    0.7,                     !- Solar Absorptance
    0.8;                     !- Visible Absorptance
Material,
    Acoustic Tile - 3/4 in., !- Name
    MediumRough,             !- Roughness
    0.01905,                 !- Thickness {m}
    0.0576334643901672,      !- Conductivity {W/m-K}
    288.332340731282,        !- Density {kg/m3}
    795.492,                 !- Specific Heat {J/kg-K}
    0.9,                     !- Thermal Absorptance
    0.7,                     !- Solar Absorptance
    0.8;                     !- Visible Absorptance
Material,
    ExtWall_MetalFramed_Res Insulation,  !- Name
    Smooth,                  !- Roughness
    0.0334247289594,  !- Thickness {m}
    0.0230187710627394,      !- Conductivity {W/m-K}
    16.0184633739601,        !- Density {kg/m3}
    1130.436,                !- Specific Heat {J/kg-K}
    0.9,                     !- Thermal Absorptance
    0.7,                     !- Solar Absorptance
    0.7;                     !- Visible Absorptance
Material,
    Asphalt Shingle,         !- Name
    VeryRough,               !- Roughness
    0.0032000000008,         !- Thickness {m}
    0.039999999942,          !- Conductivity {W/m-K}
    1120,                    !- Density {kg/m3}
    1260.000001952,          !- Specific Heat {J/kg-K}
    0.9,                     !- Thermal Absorptance
    0.7,                     !- Solar Absorptance
    0.7;                     !- Visible Absorptance
Material,
    Plywood - 5/8 in,        !- Name
    Smooth,                  !- Roughness
    0.016002,                !- Thickness {m}
    0.1154400023042,         !- Conductivity {W/m-K}
    480.553900493368,        !- Density {kg/m3}
    1884.059999048,          !- Specific Heat {J/kg-K}
    0.9,                     !- Thermal Absorptance
    0.7,                     !- Solar Absorptance
    0.7;                     !- Visible Absorptance
Material,
    ExtWall_WoodFramed_NonRes Insulation,  !- Name
    MediumSmooth,            !- Roughness
    0.00001,  !- Thickness {m}
    0.0230187710214,         !- Conductivity {W/m-K}
    16.0184633497789,        !- Density {kg/m3}
    1130.435998592,          !- Specific Heat {J/kg-K}
    0.9,                     !- Thermal Absorptance
    0.7,                     !- Solar Absorptance
    0.7;                     !- Visible Absorptance
Material,
    Built-up roofing,        !- Name
    Rough,                   !- Roughness
    0.0002413,               !- Thickness {m}
    0.023072,                !- Conductivity {W/m-K}
    17940.6676491318,        !- Density {kg/m3}
    6108640.00000001,        !- Specific Heat {J/kg-K}
    0.9,                     !- Thermal Absorptance
    0.7,                     !- Solar Absorptance
    0.8;                     !- Visible Absorptance
Material,
    FlatRoof_WoodFramingAndOther_GuestRooms Insulation,  !- Name
    Smooth,                  !- Roughness
    0.00001,  !- Thickness {m}
    0.0230187710627394,      !- Conductivity {W/m-K}
    16.0184633739601,        !- Density {kg/m3}
    1130.436,                !- Specific Heat {J/kg-K}
    0.9,                     !- Thermal Absorptance
    0.7,                     !- Solar Absorptance
    0.8;                     !- Visible Absorptance
Material,
    FlatRoof_WoodFramingAndOther_Res Insulation,  !- Name
    Smooth,                  !- Roughness
    0.0720802992986,  !- Thickness {m}
    0.0230187710627394,      !- Conductivity {W/m-K}
    16.0184633739601,        !- Density {kg/m3}
    1130.436,                !- Specific Heat {J/kg-K}
    0.9,                     !- Thermal Absorptance
    0.7,                     !- Solar Absorptance
    0.8;                     !- Visible Absorptance
Material,
    FlatRoof_WoodFramingAndOther_NonRes Insulation,  !- Name
    Smooth,                  !- Roughness
    0.00001,  !- Thickness {m}
    0.0230187710627394,      !- Conductivity {W/m-K}
    16.0184633739601,        !- Density {kg/m3}
    1130.436,                !- Specific Heat {J/kg-K}
    0.9,                     !- Thermal Absorptance
    0.7,                     !- Solar Absorptance
    0.8;                     !- Visible Absorptance
Material,
    Metal Deck - 1/32 in.,   !- Name
    Smooth,                  !- Roughness
    0.0008,                  !- Thickness {m}
    45.28,                   !- Conductivity {W/m-K}
    7824,                    !- Density {kg/m3}
    500,                     !- Specific Heat {J/kg-K}
    0.9,                     !- Thermal Absorptance
    0.7,                     !- Solar Absorptance
    0.8;                     !- Visible Absorptance
Material,
    Metal wall surface,      !- Name
    Smooth,                  !- Roughness
    0.0008,                  !- Thickness {m}
    45.28,                   !- Conductivity {W/m-K}
    7824,                    !- Density {kg/m3}
    500,                     !- Specific Heat {J/kg-K}
    0.9,                     !- Thermal Absorptance
    0.7,                     !- Solar Absorptance
    0.8;                     !- Visible Absorptance
Material,
    FlatRoof_MetalBuilding_NonRes Insulation,  !- Name
    MediumSmooth,            !- Roughness
    0.00001,  !- Thickness {m}
    0.0230187710214,         !- Conductivity {W/m-K}
    16.0184633497789,        !- Density {kg/m3}
    1130.435998592,          !- Specific Heat {J/kg-K}
    0.9,                     !- Thermal Absorptance
    0.7,                     !- Solar Absorptance
    0.8;                     !- Visible Absorptance
Material,
    FlatRoof_MetalBuilding_SemiHeated Insulation,  !- Name
    MediumSmooth,            !- Roughness
    0.00001,  !- Thickness {m}
    0.0230187710214,         !- Conductivity {W/m-K}
    16.0184633497789,        !- Density {kg/m3}
    1130.435998592,          !- Specific Heat {J/kg-K}
    0.9,                     !- Thermal Absorptance
    0.7,                     !- Solar Absorptance
    0.8;                     !- Visible Absorptance
Material,
    ExtWall_MetalFramed_GuestRooms Insulation,  !- Name
    Smooth,                  !- Roughness
    0.00001,  !- Thickness {m}
    0.0230187710627394,      !- Conductivity {W/m-K}
    16.0184633739601,        !- Density {kg/m3}
    1130.436,                !- Specific Heat {J/kg-K}
    0.9,                     !- Thermal Absorptance
    0.7,                     !- Solar Absorptance
    0.7;                     !- Visible Absorptance
Material,
    Basement_Wall_ConcreteGrout Material,  !- Name
    MediumRough,             !- Roughness
    0.2032,                  !- Thickness {m}
    1.315104,                !- Conductivity {W/m-K}
    1858.14057794579,        !- Density {kg/m3}
    836.800000000001,        !- Specific Heat {J/kg-K}
    0.9,                     !- Thermal Absorptance
    0.7,                     !- Solar Absorptance
    0.7;                     !- Visible Absorptance
Material,
    Basement_Wall_ConcreteGrout Insulation,  !- Name
    MediumSmooth,            !- Roughness
    0.0508,                  !- Thickness {m}
    0.0230187710214,         !- Conductivity {W/m-K}
    16.0184633497789,        !- Density {kg/m3}
    1130.435998592,          !- Specific Heat {J/kg-K}
    0.9,                     !- Thermal Absorptance
    0.7,                     !- Solar Absorptance
    0.7;                     !- Visible Absorptance
Material,
    Air - Wood Wall Framing 2*6 - 16 in. OC,  !- Name
    Smooth,                  !- Roughness
    0.1397,                  !- Thickness {m}
    0.0339,                  !- Conductivity {W/m-K}
    50.775,                  !- Density {kg/m3}
    1205.61,                 !- Specific Heat {J/kg-K}
    0.9,                     !- Thermal Absorptance
    0.7,                     !- Solar Absorptance
    0.7;                     !- Visible Absorptance